! Users should add all user specific namelist changes below in the form of 
! namelist_var = new_namelist_value 

clubb_do_liqsupersat           =  .false.
dust_emis_fact         = 0.70D0

clubb_gamma_coef =  0.308
micro_mg_berg_eff_factor             = 1.0
zmconv_ke            = 5.0E-6
micro_mg_dcs         = 500.D-6
micro_do_sb_physics = .false.

&dyn_fv
 fv_am_correction = .true.
 fv_am_fixer = .true.
 fv_am_fix_lbl = .true.
 fv_am_diag = .true.
/
&diagnostics
 do_circulation_diags = .true.
/
&phys_ctl_nl
 dme_energy_adjust = .true.
/
&zmconv_nl
  zmconv_num_cin =  1
/
 
&chem_inparm
 ext_frc_specifier		= 'H2O -> $DIN_LOC_ROOT/atm/cam/chem/emis/elev/H2O_emission_CH4_oxidationx2_elev_1850-2100_CCMI_RCP6_0_c160219.nc',
   'SO2    -> $DIN_LOC_ROOT/atm/cam/chem/emis/CMIP6_emissions_1750_2015_240717_CAM5.3_Oslo_version20171122/emissions-cmip6_SO2_all_vertical_1849-2015_0.9x1.25_version20171122.nc',
   'SO4_PR -> $DIN_LOC_ROOT/atm/cam/chem/emis/CMIP6_emissions_1750_2015_240717_CAM5.3_Oslo_version20171122/emissions-cmip6_SO4_PR_all_vertical_1849-2015_0.9x1.25_version20171122.nc',
   'BC_N -> $DIN_LOC_ROOT/atm/cam/chem/emis/CMIP6_emissions_1750_2015_240717_CAM5.3_Oslo_version20171122/emissions-cmip6_BC_N_all_vertical_1849-2015_0.9x1.25_version20171122.nc',
   'BC_AX -> $DIN_LOC_ROOT/atm/cam/chem/emis/CMIP6_emissions_1750_2015_240717_CAM5.3_Oslo_version20171122/emissions-cmip6_BC_AX_all_vertical_1849-2015_0.9x1.25_version20171122.nc',
   'BC_NI -> $DIN_LOC_ROOT/atm/cam/chem/emis/CMIP6_emissions_1750_2015_240717_CAM5.3_Oslo_version20171122/emissions-cmip6_BC_NI_all_vertical_1849-2015_0.9x1.25_version20171122.nc',
   'OM_NI -> $DIN_LOC_ROOT/atm/cam/chem/emis/CMIP6_emissions_1750_2015_240717_CAM5.3_Oslo_version20171122/emissions-cmip6_OM_NI_all_vertical_1849-2015_0.9x1.25_version20171122.nc',
 srf_emis_specifier             = 'BC_N    -> $DIN_LOC_ROOT/atm/cam/chem/emis/CMIP6_emissions_1750_2015_240717_CAM5.3_Oslo_version20171122/emissions-cmip6_BC_N_all_surface_1849-2015_0.9x1.25_version20171122.nc',
   'BC_AX    -> $DIN_LOC_ROOT/atm/cam/chem/emis/CMIP6_emissions_1750_2015_240717_CAM5.3_Oslo_version20171122/emissions-cmip6_BC_AX_all_surface_1849-2015_0.9x1.25_version20171122.nc',
   'OM_NI    -> $DIN_LOC_ROOT/atm/cam/chem/emis/CMIP6_emissions_1750_2015_240717_CAM5.3_Oslo_version20171122/emissions-cmip6_OM_NI_all_surface_1849-2015_0.9x1.25_version20171122.nc',
   'SO2      -> $DIN_LOC_ROOT/atm/cam/chem/emis/CMIP6_emissions_1750_2015_240717_CAM5.3_Oslo_version20171122/emissions-cmip6_SO2_all_surface_1849-2015_0.9x1.25_version20171122.nc',
   'SO4_PR   -> $DIN_LOC_ROOT/atm/cam/chem/emis/CMIP6_emissions_1750_2015_240717_CAM5.3_Oslo_version20171122/emissions-cmip6_SO4_PR_all_surface_1849-2015_0.9x1.25_version20171122.nc'

/
&zmconv_nl
 zmconv_c0_lnd          =  0.0300D0 
 zmconv_c0_ocn          =  0.0300D0 
/
